Circuit: * C:\Users\Lee\Desktop\Garden-Control-System\Sims\Totem pole gate driver.asc

Warning: Multiple definitions of model "2scr375p" Type: BJT
Warning: Multiple definitions of model "bc857b" Type: BJT
Warning: Multiple definitions of model "bc847c" Type: BJT
Warning: Multiple definitions of model "bc847b" Type: BJT
Limiting rise time of source v1 to 1.25e-06
Limiting fall time of source v1 to 1.25e-06
Direct Newton iteration for .op point succeeded.

Date: Sun May 19 20:27:22 2024
Total elapsed time: 0.195 seconds.

tnom = 27
temp = 27
method = modified trap
totiter = 3542
traniter = 3505
tranpoints = 1313
accept = 1227
rejected = 86
matrix size = 14
fillins = 0
solver = Normal
Avg thread counts: 1.8/3.0/3.1/1.8
Matrix Compiler1: 662 bytes object code size  0.5/0.5/[0.2]
Matrix Compiler2: 1.02 KB object code size  0.3/0.5/[0.2]

